
    Snepper-1 16-Seg Font
   -----------------------

               -0- -1-
              |\  |  /|
              7 a b c 2
              |  \|/  |
              -8-   -9-
              |  /|\  |
              6 f e d 3
              |/  |  \|
               -5- -4-

 --- HEX ---

 00    0        1 1 1 1     1 1 1 1     0 0 0 0     1 0 0 1
 01    1        0 0 1 1     0 0 0 0     0 0 0 0     1 0 0 0
 02    2        1 1 1 0     1 1 1 0     1 1 0 0     0 0 0 0
 03    3        1 1 1 1     1 1 0 0     1 1 0 0     0 0 0 0
 04    4        0 0 1 1     0 0 0 1     1 1 0 0     0 0 0 0
 05    5        1 1 0 1     1 1 0 1     1 1 0 0     0 0 0 0
 06    6        1 1 0 1     1 1 1 1     1 1 0 0     0 0 0 0
 07    7        1 1 1 1     0 0 0 1     0 0 0 0     0 0 0 0
 08    8        1 1 1 1     1 1 1 1     1 1 0 0     0 0 0 0
 09    9        1 1 1 1     1 1 0 1     1 1 0 0     0 0 0 0
 0A    A        1 1 1 1     0 0 1 1     1 1 0 0     0 0 0 0
 0B    B        1 1 1 1     1 1 0 0     0 1 0 1     0 0 1 0
 0C    C        1 1 0 0     1 1 1 1     0 0 0 0     0 0 0 0
 0D    D        1 1 1 1     1 1 0 0     0 0 0 1     0 0 1 0
 0E    E        1 1 0 0     1 1 1 1     1 1 0 0     0 0 0 0
 0F    F        1 1 0 0     0 0 1 1     1 1 0 0     0 0 0 0

 --- Segments ---

 10    0        1 0 0 0     0 0 0 0     0 0 0 0     0 0 0 0
 11    1        0 1 0 0     0 0 0 0     0 0 0 0     0 0 0 0
 12    2        0 0 1 0     0 0 0 0     0 0 0 0     0 0 0 0
 13    3        0 0 0 1     0 0 0 0     0 0 0 0     0 0 0 0
 14    4        0 0 0 0     1 0 0 0     0 0 0 0     0 0 0 0
 15    5        0 0 0 0     0 1 0 0     0 0 0 0     0 0 0 0
 16    6        0 0 0 0     0 0 1 0     0 0 0 0     0 0 0 0
 17    7        0 0 0 0     0 0 0 1     0 0 0 0     0 0 0 0
 18    8        0 0 0 0     0 0 0 0     1 0 0 0     0 0 0 0
 19    9        0 0 0 0     0 0 0 0     0 1 0 0     0 0 0 0
 1A    A        0 0 0 0     0 0 0 0     0 0 1 0     0 0 0 0
 1B    B        0 0 0 0     0 0 0 0     0 0 0 1     0 0 0 0
 1C    C        0 0 0 0     0 0 0 0     0 0 0 0     1 0 0 0
 1D    D        0 0 0 0     0 0 0 0     0 0 0 0     0 1 0 0
 1E    E        0 0 0 0     0 0 0 0     0 0 0 0     0 0 1 0
 1F    F        0 0 0 0     0 0 0 0     0 0 0 0     0 0 0 1

 --- ASCII ---

 20    SP       0 0 0 0     0 0 0 0     0 0 0 0     0 0 0 0
 21    !        0 0 0 0     0 1 0 0     0 0 0 1     0 0 0 0
 22    "        0 0 0 0     0 0 0 1     0 0 0 1     0 0 0 0
 23    #        1 1 1 1     0 0 0 0     1 1 0 1     0 0 1 0
 24    $        1 1 0 1     1 1 0 1     1 1 0 1     0 0 1 0
 25    %        1 0 0 0     1 0 0 0     0 0 0 0     1 0 0 1
 26    &        1 1 0 0     1 1 1 0     1 1 1 0     0 1 0 0
 27    '        0 0 0 0     0 0 0 0     0 0 0 1     0 0 0 0
 28    (        0 1 0 0     1 0 0 0     0 0 0 1     0 0 1 0
 29    )        1 0 0 0     0 1 0 0     0 0 0 1     0 0 1 0
 2A    *        0 0 0 0     0 0 0 0     1 1 1 1     1 1 1 1
 2B    +        0 0 0 0     0 0 0 0     1 1 0 1     0 0 1 0
 2C    ,        0 0 0 0     0 0 0 0     0 0 0 0     0 0 0 1
 2D    -        0 0 0 0     0 0 0 0     1 1 0 0     0 0 0 0
 2E    .        0 0 0 0     0 1 0 0     0 0 0 0     0 0 0 0
 2F    /        0 0 0 0     0 0 0 0     0 0 0 0     1 0 0 1

 30    0        1 1 1 1     1 1 1 1     0 0 0 0     1 0 0 1
 31    1        0 0 1 1     0 0 0 0     0 0 0 0     1 0 0 0
 32    2        1 1 1 0     1 1 1 0     1 1 0 0     0 0 0 0
 33    3        1 1 1 1     1 1 0 0     1 1 0 0     0 0 0 0
 34    4        0 0 1 1     0 0 0 1     1 1 0 0     0 0 0 0
 35    5        1 1 0 1     1 1 0 1     1 1 0 0     0 0 0 0
 36    6        1 1 0 1     1 1 1 1     1 1 0 0     0 0 0 0
 37    7        1 1 1 1     0 0 0 1     0 0 0 0     0 0 0 0
 38    8        1 1 1 1     1 1 1 1     1 1 0 0     0 0 0 0
 39    9        1 1 1 1     1 1 0 1     1 1 0 0     0 0 0 0
 3A    :        1 0 0 0     0 1 0 0     0 0 0 0     0 0 0 0
 3B    ;        1 0 0 0     0 0 0 0     0 0 0 0     0 0 0 1
 3C    <        0 0 0 0     0 0 0 0     0 0 0 0     1 1 0 0
 3D    =        0 0 0 0     1 1 0 0     1 1 0 0     0 0 0 0
 3E    >        0 0 0 0     0 0 0 0     0 0 1 0     0 0 0 1
 3F    ?        1 1 1 0     0 0 0 1     0 1 0 0     0 0 1 0

 40    @        1 1 1 1     1 1 1 0     1 0 0 0     0 0 1 0
 41    A        1 1 1 1     0 0 1 1     1 1 0 0     0 0 0 0
 42    B        1 1 1 1     1 1 0 0     0 1 0 1     0 0 1 0
 43    C        1 1 0 0     1 1 1 1     0 0 0 0     0 0 0 0
 44    D        1 1 1 1     1 1 0 0     0 0 0 1     0 0 1 0
 45    E        1 1 0 0     1 1 1 1     1 1 0 0     0 0 0 0
 46    F        1 1 0 0     0 0 1 1     1 1 0 0     0 0 0 0
 47    G        1 1 0 1     1 1 1 1     0 1 0 0     0 0 0 0
 48    H        0 0 1 1     0 0 1 1     1 1 0 0     0 0 0 0
 49    I        1 1 0 0     1 1 0 0     0 0 0 1     0 0 1 0
 4A    J        0 0 1 1     1 1 1 0     0 0 0 0     0 0 0 0
 4B    K        0 0 0 0     0 0 1 1     1 0 0 0     1 1 0 0
 4C    L        0 0 0 0     1 1 1 1     0 0 0 0     0 0 0 0
 4D    M        0 0 1 1     0 0 1 1     0 0 1 0     1 0 0 0
 4E    N        0 0 1 1     0 0 1 1     0 0 1 0     0 1 0 0
 4F    O        1 1 1 1     1 1 1 1     0 0 0 0     0 0 0 0

 50    P        1 1 1 0     0 0 1 1     1 1 0 0     0 0 0 0
 51    Q        1 1 1 1     1 1 1 1     0 0 0 0     0 1 0 0
 52    R        1 1 1 0     0 0 1 1     1 1 0 0     0 1 0 0
 53    S        1 1 0 1     1 1 0 1     1 1 0 0     0 0 0 0
 54    T        1 1 0 0     0 0 0 0     0 0 0 1     0 0 1 0
 55    U        0 0 1 1     1 1 1 1     0 0 0 0     0 0 0 0
 56    V        0 0 0 0     0 0 1 1     0 0 0 0     1 0 0 1
 57    W        0 0 1 1     1 1 1 1     0 0 0 0     0 0 1 0
 58    X        0 0 0 0     0 0 0 0     0 0 1 0     1 1 0 1
 59    Y        0 0 1 0     0 0 0 1     1 1 0 0     0 0 1 0
 5A    Z        1 1 0 0     1 1 0 0     0 0 0 0     1 0 0 1
 5B    [        1 0 0 0     0 1 1 1     0 0 0 0     0 0 0 0
 5C    \        0 0 0 0     0 0 0 0     0 0 1 0     0 1 0 0
 5D    ]        0 1 1 1     1 0 0 0     0 0 0 0     0 0 0 0
 5E    ^        0 0 0 0     0 0 0 1     0 0 1 0     0 0 0 0
 5F    _        0 0 0 0     1 1 0 0     0 0 0 0     0 0 0 0

 60    `        0 0 0 0     0 0 0 0     0 0 1 0     0 0 0 0
 61    a        1 1 1 1     0 0 1 1     1 1 0 0     0 0 0 0
 62    b        1 1 1 1     1 1 0 0     0 1 0 1     0 0 1 0
 63    c        1 1 0 0     1 1 1 1     0 0 0 0     0 0 0 0
 64    d        1 1 1 1     1 1 0 0     0 0 0 1     0 0 1 0
 65    e        1 1 0 0     1 1 1 1     1 1 0 0     0 0 0 0
 66    f        1 1 0 0     0 0 1 1     1 1 0 0     0 0 0 0
 67    g        1 1 0 1     1 1 1 1     0 1 0 0     0 0 0 0
 68    h        0 0 1 1     0 0 1 1     1 1 0 0     0 0 0 0
 69    i        1 1 0 0     1 1 0 0     0 0 0 1     0 0 1 0
 6A    j        0 0 1 1     1 1 1 0     0 0 0 0     0 0 0 0
 6B    k        0 0 0 0     0 0 1 1     1 0 0 0     1 1 0 0
 6C    l        0 0 0 0     1 1 1 1     0 0 0 0     0 0 0 0
 6D    m        0 0 1 1     0 0 1 1     0 0 1 0     1 0 0 0
 6E    n        0 0 1 1     0 0 1 1     0 0 1 0     0 1 0 0
 6F    o        1 1 1 1     1 1 1 1     0 0 0 0     0 0 0 0

 70    p        1 1 1 0     0 0 1 1     1 1 0 0     0 0 0 0
 71    q        1 1 1 1     1 1 1 1     0 0 0 0     0 1 0 0
 72    r        1 1 1 0     0 0 1 1     1 1 0 0     0 1 0 0
 73    s        1 1 0 1     1 1 0 1     1 1 0 0     0 0 0 0
 74    t        1 1 0 0     0 0 0 0     0 0 0 1     0 0 1 0
 75    u        0 0 1 1     1 1 1 1     0 0 0 0     0 0 0 0
 76    v        0 0 0 0     0 0 1 1     0 0 0 0     1 0 0 1
 77    w        0 0 1 1     1 1 1 1     0 0 0 0     0 0 1 0
 78    x        0 0 0 0     0 0 0 0     0 0 1 0     1 1 0 1
 79    y        0 0 1 0     0 0 0 1     1 1 0 0     0 0 1 0
 7A    z        1 1 0 0     1 1 0 0     0 0 0 0     1 0 0 1
 7B    {        0 1 0 0     1 0 0 0     1 0 0 1     0 0 1 0
 7C    |        0 0 0 0     0 0 0 0     0 0 0 1     0 0 1 0
 7D    }        1 0 0 0     0 1 0 0     0 1 0 1     0 0 1 0
 7E    ~        1 0 1 0     0 0 0 1     0 1 0 1     0 0 0 0

